Version 4
SHEET 1 880 680
SYMBOL voltage 80 80 R0
WINDOW 123 0 0 Left 0
WINDOW 39 0 0 Left 0
SYMATTR InstName V1
SYMATTR Value 4.5
SYMBOL pmos 240 -32 R0
SYMATTR InstName M1
